<?xml version="1.0" encoding="UTF-8"?>

<!-- generated on 2026-07-14T21:11:21.340262+09:00 by Eclipse SUMO netgenerate 1.25.0
<netgenerateConfiguration xmlns:xsi="http://www.w3.org/2001/XMLSchema-instance" xsi:noNamespaceSchemaLocation="http://sumo.dlr.de/xsd/netgenerateConfiguration.xsd">

    <grid_network>
        <grid value="true"/>
        <grid.number value="7"/>
        <grid.length value="200"/>
    </grid_network>

    <output>
        <output-file value="grid7.net.xml"/>
    </output>

    <building_defaults>
        <default.speed value="13.9"/>
    </building_defaults>

    <junctions>
        <no-turnarounds value="true"/>
    </junctions>

</netgenerateConfiguration>
-->

<net version="1.20" junctionCornerDetail="5" limitTurnSpeed="5.50" xmlns:xsi="http://www.w3.org/2001/XMLSchema-instance" xsi:noNamespaceSchemaLocation="http://sumo.dlr.de/xsd/net_file.xsd">

    <location netOffset="0.00,0.00" convBoundary="0.00,0.00,1200.00,1200.00" origBoundary="0.00,0.00,1200.00,1200.00" projParameter="!"/>

    <edge id=":A0_0" function="internal">
        <lane id=":A0_0_0" index="0" speed="6.08" length="7.74" shape="-1.60,3.20 -1.30,1.10 -0.40,-0.40 1.10,-1.30 3.20,-1.60"/>
    </edge>
    <edge id=":A0_1" function="internal">
        <lane id=":A0_1_0" index="0" speed="3.90" length="2.58" shape="3.20,1.60 2.50,1.70 2.00,2.00 1.70,2.50 1.60,3.20"/>
    </edge>
    <edge id=":A1_0" function="internal">
        <lane id=":A1_0_0" index="0" speed="13.90" length="14.40" shape="-1.60,207.20 -1.60,192.80"/>
    </edge>
    <edge id=":A1_1" function="internal">
        <lane id=":A1_1_0" index="0" speed="8.00" length="4.07" shape="-1.60,207.20 -1.05,203.35 -0.96,203.20"/>
    </edge>
    <edge id=":A1_6" function="internal">
        <lane id=":A1_6_0" index="0" speed="8.00" length="10.13" shape="-0.96,203.20 0.60,200.60 3.35,198.95 7.20,198.40"/>
    </edge>
    <edge id=":A1_2" function="internal">
        <lane id=":A1_2_0" index="0" speed="6.51" length="9.03" shape="7.20,201.60 4.75,201.95 3.00,203.00 1.95,204.75 1.60,207.20"/>
    </edge>
    <edge id=":A1_3" function="internal">
        <lane id=":A1_3_0" index="0" speed="8.00" length="14.19" shape="7.20,201.60 3.35,201.05 0.60,199.40 -1.05,196.65 -1.60,192.80"/>
    </edge>
    <edge id=":A1_4" function="internal">
        <lane id=":A1_4_0" index="0" speed="6.51" length="9.03" shape="1.60,192.80 1.95,195.25 3.00,197.00 4.75,198.05 7.20,198.40"/>
    </edge>
    <edge id=":A1_5" function="internal">
        <lane id=":A1_5_0" index="0" speed="13.90" length="14.40" shape="1.60,192.80 1.60,207.20"/>
    </edge>
    <edge id=":A2_0" function="internal">
        <lane id=":A2_0_0" index="0" speed="13.90" length="14.40" shape="-1.60,407.20 -1.60,392.80"/>
    </edge>
    <edge id=":A2_1" function="internal">
        <lane id=":A2_1_0" index="0" speed="8.00" length="4.07" shape="-1.60,407.20 -1.05,403.35 -0.96,403.20"/>
    </edge>
    <edge id=":A2_6" function="internal">
        <lane id=":A2_6_0" index="0" speed="8.00" length="10.13" shape="-0.96,403.20 0.60,400.60 3.35,398.95 7.20,398.40"/>
    </edge>
    <edge id=":A2_2" function="internal">
        <lane id=":A2_2_0" index="0" speed="6.51" length="9.03" shape="7.20,401.60 4.75,401.95 3.00,403.00 1.95,404.75 1.60,407.20"/>
    </edge>
    <edge id=":A2_3" function="internal">
        <lane id=":A2_3_0" index="0" speed="8.00" length="14.19" shape="7.20,401.60 3.35,401.05 0.60,399.40 -1.05,396.65 -1.60,392.80"/>
    </edge>
    <edge id=":A2_4" function="internal">
        <lane id=":A2_4_0" index="0" speed="6.51" length="9.03" shape="1.60,392.80 1.95,395.25 3.00,397.00 4.75,398.05 7.20,398.40"/>
    </edge>
    <edge id=":A2_5" function="internal">
        <lane id=":A2_5_0" index="0" speed="13.90" length="14.40" shape="1.60,392.80 1.60,407.20"/>
    </edge>
    <edge id=":A3_0" function="internal">
        <lane id=":A3_0_0" index="0" speed="13.90" length="14.40" shape="-1.60,607.20 -1.60,592.80"/>
    </edge>
    <edge id=":A3_1" function="internal">
        <lane id=":A3_1_0" index="0" speed="8.00" length="4.07" shape="-1.60,607.20 -1.05,603.35 -0.96,603.20"/>
    </edge>
    <edge id=":A3_6" function="internal">
        <lane id=":A3_6_0" index="0" speed="8.00" length="10.13" shape="-0.96,603.20 0.60,600.60 3.35,598.95 7.20,598.40"/>
    </edge>
    <edge id=":A3_2" function="internal">
        <lane id=":A3_2_0" index="0" speed="6.51" length="9.03" shape="7.20,601.60 4.75,601.95 3.00,603.00 1.95,604.75 1.60,607.20"/>
    </edge>
    <edge id=":A3_3" function="internal">
        <lane id=":A3_3_0" index="0" speed="8.00" length="14.19" shape="7.20,601.60 3.35,601.05 0.60,599.40 -1.05,596.65 -1.60,592.80"/>
    </edge>
    <edge id=":A3_4" function="internal">
        <lane id=":A3_4_0" index="0" speed="6.51" length="9.03" shape="1.60,592.80 1.95,595.25 3.00,597.00 4.75,598.05 7.20,598.40"/>
    </edge>
    <edge id=":A3_5" function="internal">
        <lane id=":A3_5_0" index="0" speed="13.90" length="14.40" shape="1.60,592.80 1.60,607.20"/>
    </edge>
    <edge id=":A4_0" function="internal">
        <lane id=":A4_0_0" index="0" speed="13.90" length="14.40" shape="-1.60,807.20 -1.60,792.80"/>
    </edge>
    <edge id=":A4_1" function="internal">
        <lane id=":A4_1_0" index="0" speed="8.00" length="4.07" shape="-1.60,807.20 -1.05,803.35 -0.96,803.20"/>
    </edge>
    <edge id=":A4_6" function="internal">
        <lane id=":A4_6_0" index="0" speed="8.00" length="10.13" shape="-0.96,803.20 0.60,800.60 3.35,798.95 7.20,798.40"/>
    </edge>
    <edge id=":A4_2" function="internal">
        <lane id=":A4_2_0" index="0" speed="6.51" length="9.03" shape="7.20,801.60 4.75,801.95 3.00,803.00 1.95,804.75 1.60,807.20"/>
    </edge>
    <edge id=":A4_3" function="internal">
        <lane id=":A4_3_0" index="0" speed="8.00" length="14.19" shape="7.20,801.60 3.35,801.05 0.60,799.40 -1.05,796.65 -1.60,792.80"/>
    </edge>
    <edge id=":A4_4" function="internal">
        <lane id=":A4_4_0" index="0" speed="6.51" length="9.03" shape="1.60,792.80 1.95,795.25 3.00,797.00 4.75,798.05 7.20,798.40"/>
    </edge>
    <edge id=":A4_5" function="internal">
        <lane id=":A4_5_0" index="0" speed="13.90" length="14.40" shape="1.60,792.80 1.60,807.20"/>
    </edge>
    <edge id=":A5_0" function="internal">
        <lane id=":A5_0_0" index="0" speed="13.90" length="14.40" shape="-1.60,1007.20 -1.60,992.80"/>
    </edge>
    <edge id=":A5_1" function="internal">
        <lane id=":A5_1_0" index="0" speed="8.00" length="4.07" shape="-1.60,1007.20 -1.05,1003.35 -0.96,1003.20"/>
    </edge>
    <edge id=":A5_6" function="internal">
        <lane id=":A5_6_0" index="0" speed="8.00" length="10.13" shape="-0.96,1003.20 0.60,1000.60 3.35,998.95 7.20,998.40"/>
    </edge>
    <edge id=":A5_2" function="internal">
        <lane id=":A5_2_0" index="0" speed="6.51" length="9.03" shape="7.20,1001.60 4.75,1001.95 3.00,1003.00 1.95,1004.75 1.60,1007.20"/>
    </edge>
    <edge id=":A5_3" function="internal">
        <lane id=":A5_3_0" index="0" speed="8.00" length="14.19" shape="7.20,1001.60 3.35,1001.05 0.60,999.40 -1.05,996.65 -1.60,992.80"/>
    </edge>
    <edge id=":A5_4" function="internal">
        <lane id=":A5_4_0" index="0" speed="6.51" length="9.03" shape="1.60,992.80 1.95,995.25 3.00,997.00 4.75,998.05 7.20,998.40"/>
    </edge>
    <edge id=":A5_5" function="internal">
        <lane id=":A5_5_0" index="0" speed="13.90" length="14.40" shape="1.60,992.80 1.60,1007.20"/>
    </edge>
    <edge id=":A6_0" function="internal">
        <lane id=":A6_0_0" index="0" speed="6.08" length="7.74" shape="3.20,1201.60 1.10,1201.30 -0.40,1200.40 -1.30,1198.90 -1.60,1196.80"/>
    </edge>
    <edge id=":A6_1" function="internal">
        <lane id=":A6_1_0" index="0" speed="3.90" length="2.58" shape="1.60,1196.80 1.70,1197.50 2.00,1198.00 2.50,1198.30 3.20,1198.40"/>
    </edge>
    <edge id=":B0_0" function="internal">
        <lane id=":B0_0_0" index="0" speed="6.51" length="9.03" shape="198.40,7.20 198.05,4.75 197.00,3.00 195.25,1.95 192.80,1.60"/>
    </edge>
    <edge id=":B0_1" function="internal">
        <lane id=":B0_1_0" index="0" speed="8.00" length="14.19" shape="198.40,7.20 198.95,3.35 200.60,0.60 203.35,-1.05 207.20,-1.60"/>
    </edge>
    <edge id=":B0_2" function="internal">
        <lane id=":B0_2_0" index="0" speed="6.51" length="9.03" shape="207.20,1.60 204.75,1.95 203.00,3.00 201.95,4.75 201.60,7.20"/>
    </edge>
    <edge id=":B0_3" function="internal">
        <lane id=":B0_3_0" index="0" speed="13.90" length="14.40" shape="207.20,1.60 192.80,1.60"/>
    </edge>
    <edge id=":B0_4" function="internal">
        <lane id=":B0_4_0" index="0" speed="13.90" length="14.40" shape="192.80,-1.60 207.20,-1.60"/>
    </edge>
    <edge id=":B0_5" function="internal">
        <lane id=":B0_5_0" index="0" speed="8.00" length="4.07" shape="192.80,-1.60 196.65,-1.05 196.80,-0.96"/>
    </edge>
    <edge id=":B0_6" function="internal">
        <lane id=":B0_6_0" index="0" speed="8.00" length="10.13" shape="196.80,-0.96 199.40,0.60 201.05,3.35 201.60,7.20"/>
    </edge>
    <edge id=":B1_0" function="internal">
        <lane id=":B1_0_0" index="0" speed="6.51" length="9.03" shape="198.40,207.20 198.05,204.75 197.00,203.00 195.25,201.95 192.80,201.60"/>
    </edge>
    <edge id=":B1_1" function="internal">
        <lane id=":B1_1_0" index="0" speed="13.90" length="14.40" shape="198.40,207.20 198.40,192.80"/>
    </edge>
    <edge id=":B1_2" function="internal">
        <lane id=":B1_2_0" index="0" speed="8.00" length="4.07" shape="198.40,207.20 198.95,203.35 199.04,203.20"/>
    </edge>
    <edge id=":B1_12" function="internal">
        <lane id=":B1_12_0" index="0" speed="8.00" length="10.13" shape="199.04,203.20 200.60,200.60 203.35,198.95 207.20,198.40"/>
    </edge>
    <edge id=":B1_3" function="internal">
        <lane id=":B1_3_0" index="0" speed="6.51" length="9.03" shape="207.20,201.60 204.75,201.95 203.00,203.00 201.95,204.75 201.60,207.20"/>
    </edge>
    <edge id=":B1_4" function="internal">
        <lane id=":B1_4_0" index="0" speed="13.90" length="14.40" shape="207.20,201.60 192.80,201.60"/>
    </edge>
    <edge id=":B1_5" function="internal">
        <lane id=":B1_5_0" index="0" speed="8.00" length="14.19" shape="207.20,201.60 203.35,201.05 200.60,199.40 198.95,196.65 198.40,192.80"/>
    </edge>
    <edge id=":B1_6" function="internal">
        <lane id=":B1_6_0" index="0" speed="6.51" length="9.03" shape="201.60,192.80 201.95,195.25 203.00,197.00 204.75,198.05 207.20,198.40"/>
    </edge>
    <edge id=":B1_7" function="internal">
        <lane id=":B1_7_0" index="0" speed="13.90" length="14.40" shape="201.60,192.80 201.60,207.20"/>
    </edge>
    <edge id=":B1_8" function="internal">
        <lane id=":B1_8_0" index="0" speed="8.00" length="4.07" shape="201.60,192.80 201.05,196.65 200.96,196.80"/>
    </edge>
    <edge id=":B1_13" function="internal">
        <lane id=":B1_13_0" index="0" speed="8.00" length="10.13" shape="200.96,196.80 199.40,199.40 196.65,201.05 192.80,201.60"/>
    </edge>
    <edge id=":B1_9" function="internal">
        <lane id=":B1_9_0" index="0" speed="6.51" length="9.03" shape="192.80,198.40 195.25,198.05 197.00,197.00 198.05,195.25 198.40,192.80"/>
    </edge>
    <edge id=":B1_10" function="internal">
        <lane id=":B1_10_0" index="0" speed="13.90" length="14.40" shape="192.80,198.40 207.20,198.40"/>
    </edge>
    <edge id=":B1_11" function="internal">
        <lane id=":B1_11_0" index="0" speed="8.00" length="14.19" shape="192.80,198.40 196.65,198.95 199.40,200.60 201.05,203.35 201.60,207.20"/>
    </edge>
    <edge id=":B2_0" function="internal">
        <lane id=":B2_0_0" index="0" speed="6.51" length="9.03" shape="198.40,407.20 198.05,404.75 197.00,403.00 195.25,401.95 192.80,401.60"/>
    </edge>
    <edge id=":B2_1" function="internal">
        <lane id=":B2_1_0" index="0" speed="13.90" length="14.40" shape="198.40,407.20 198.40,392.80"/>
    </edge>
    <edge id=":B2_2" function="internal">
        <lane id=":B2_2_0" index="0" speed="8.00" length="4.07" shape="198.40,407.20 198.95,403.35 199.04,403.20"/>
    </edge>
    <edge id=":B2_12" function="internal">
        <lane id=":B2_12_0" index="0" speed="8.00" length="10.13" shape="199.04,403.20 200.60,400.60 203.35,398.95 207.20,398.40"/>
    </edge>
    <edge id=":B2_3" function="internal">
        <lane id=":B2_3_0" index="0" speed="6.51" length="9.03" shape="207.20,401.60 204.75,401.95 203.00,403.00 201.95,404.75 201.60,407.20"/>
    </edge>
    <edge id=":B2_4" function="internal">
        <lane id=":B2_4_0" index="0" speed="13.90" length="14.40" shape="207.20,401.60 192.80,401.60"/>
    </edge>
    <edge id=":B2_5" function="internal">
        <lane id=":B2_5_0" index="0" speed="8.00" length="14.19" shape="207.20,401.60 203.35,401.05 200.60,399.40 198.95,396.65 198.40,392.80"/>
    </edge>
    <edge id=":B2_6" function="internal">
        <lane id=":B2_6_0" index="0" speed="6.51" length="9.03" shape="201.60,392.80 201.95,395.25 203.00,397.00 204.75,398.05 207.20,398.40"/>
    </edge>
    <edge id=":B2_7" function="internal">
        <lane id=":B2_7_0" index="0" speed="13.90" length="14.40" shape="201.60,392.80 201.60,407.20"/>
    </edge>
    <edge id=":B2_8" function="internal">
        <lane id=":B2_8_0" index="0" speed="8.00" length="4.07" shape="201.60,392.80 201.05,396.65 200.96,396.80"/>
    </edge>
    <edge id=":B2_13" function="internal">
        <lane id=":B2_13_0" index="0" speed="8.00" length="10.13" shape="200.96,396.80 199.40,399.40 196.65,401.05 192.80,401.60"/>
    </edge>
    <edge id=":B2_9" function="internal">
        <lane id=":B2_9_0" index="0" speed="6.51" length="9.03" shape="192.80,398.40 195.25,398.05 197.00,397.00 198.05,395.25 198.40,392.80"/>
    </edge>
    <edge id=":B2_10" function="internal">
        <lane id=":B2_10_0" index="0" speed="13.90" length="14.40" shape="192.80,398.40 207.20,398.40"/>
    </edge>
    <edge id=":B2_11" function="internal">
        <lane id=":B2_11_0" index="0" speed="8.00" length="14.19" shape="192.80,398.40 196.65,398.95 199.40,400.60 201.05,403.35 201.60,407.20"/>
    </edge>
    <edge id=":B3_0" function="internal">
        <lane id=":B3_0_0" index="0" speed="6.51" length="9.03" shape="198.40,607.20 198.05,604.75 197.00,603.00 195.25,601.95 192.80,601.60"/>
    </edge>
    <edge id=":B3_1" function="internal">
        <lane id=":B3_1_0" index="0" speed="13.90" length="14.40" shape="198.40,607.20 198.40,592.80"/>
    </edge>
    <edge id=":B3_2" function="internal">
        <lane id=":B3_2_0" index="0" speed="8.00" length="4.07" shape="198.40,607.20 198.95,603.35 199.04,603.20"/>
    </edge>
    <edge id=":B3_12" function="internal">
        <lane id=":B3_12_0" index="0" speed="8.00" length="10.13" shape="199.04,603.20 200.60,600.60 203.35,598.95 207.20,598.40"/>
    </edge>
    <edge id=":B3_3" function="internal">
        <lane id=":B3_3_0" index="0" speed="6.51" length="9.03" shape="207.20,601.60 204.75,601.95 203.00,603.00 201.95,604.75 201.60,607.20"/>
    </edge>
    <edge id=":B3_4" function="internal">
        <lane id=":B3_4_0" index="0" speed="13.90" length="14.40" shape="207.20,601.60 192.80,601.60"/>
    </edge>
    <edge id=":B3_5" function="internal">
        <lane id=":B3_5_0" index="0" speed="8.00" length="14.19" shape="207.20,601.60 203.35,601.05 200.60,599.40 198.95,596.65 198.40,592.80"/>
    </edge>
    <edge id=":B3_6" function="internal">
        <lane id=":B3_6_0" index="0" speed="6.51" length="9.03" shape="201.60,592.80 201.95,595.25 203.00,597.00 204.75,598.05 207.20,598.40"/>
    </edge>
    <edge id=":B3_7" function="internal">
        <lane id=":B3_7_0" index="0" speed="13.90" length="14.40" shape="201.60,592.80 201.60,607.20"/>
    </edge>
    <edge id=":B3_8" function="internal">
        <lane id=":B3_8_0" index="0" speed="8.00" length="4.07" shape="201.60,592.80 201.05,596.65 200.96,596.80"/>
    </edge>
    <edge id=":B3_13" function="internal">
        <lane id=":B3_13_0" index="0" speed="8.00" length="10.13" shape="200.96,596.80 199.40,599.40 196.65,601.05 192.80,601.60"/>
    </edge>
    <edge id=":B3_9" function="internal">
        <lane id=":B3_9_0" index="0" speed="6.51" length="9.03" shape="192.80,598.40 195.25,598.05 197.00,597.00 198.05,595.25 198.40,592.80"/>
    </edge>
    <edge id=":B3_10" function="internal">
        <lane id=":B3_10_0" index="0" speed="13.90" length="14.40" shape="192.80,598.40 207.20,598.40"/>
    </edge>
    <edge id=":B3_11" function="internal">
        <lane id=":B3_11_0" index="0" speed="8.00" length="14.19" shape="192.80,598.40 196.65,598.95 199.40,600.60 201.05,603.35 201.60,607.20"/>
    </edge>
    <edge id=":B4_0" function="internal">
        <lane id=":B4_0_0" index="0" speed="6.51" length="9.03" shape="198.40,807.20 198.05,804.75 197.00,803.00 195.25,801.95 192.80,801.60"/>
    </edge>
    <edge id=":B4_1" function="internal">
        <lane id=":B4_1_0" index="0" speed="13.90" length="14.40" shape="198.40,807.20 198.40,792.80"/>
    </edge>
    <edge id=":B4_2" function="internal">
        <lane id=":B4_2_0" index="0" speed="8.00" length="4.07" shape="198.40,807.20 198.95,803.35 199.04,803.20"/>
    </edge>
    <edge id=":B4_12" function="internal">
        <lane id=":B4_12_0" index="0" speed="8.00" length="10.13" shape="199.04,803.20 200.60,800.60 203.35,798.95 207.20,798.40"/>
    </edge>
    <edge id=":B4_3" function="internal">
        <lane id=":B4_3_0" index="0" speed="6.51" length="9.03" shape="207.20,801.60 204.75,801.95 203.00,803.00 201.95,804.75 201.60,807.20"/>
    </edge>
    <edge id=":B4_4" function="internal">
        <lane id=":B4_4_0" index="0" speed="13.90" length="14.40" shape="207.20,801.60 192.80,801.60"/>
    </edge>
    <edge id=":B4_5" function="internal">
        <lane id=":B4_5_0" index="0" speed="8.00" length="14.19" shape="207.20,801.60 203.35,801.05 200.60,799.40 198.95,796.65 198.40,792.80"/>
    </edge>
    <edge id=":B4_6" function="internal">
        <lane id=":B4_6_0" index="0" speed="6.51" length="9.03" shape="201.60,792.80 201.95,795.25 203.00,797.00 204.75,798.05 207.20,798.40"/>
    </edge>
    <edge id=":B4_7" function="internal">
        <lane id=":B4_7_0" index="0" speed="13.90" length="14.40" shape="201.60,792.80 201.60,807.20"/>
    </edge>
    <edge id=":B4_8" function="internal">
        <lane id=":B4_8_0" index="0" speed="8.00" length="4.07" shape="201.60,792.80 201.05,796.65 200.96,796.80"/>
    </edge>
    <edge id=":B4_13" function="internal">
        <lane id=":B4_13_0" index="0" speed="8.00" length="10.13" shape="200.96,796.80 199.40,799.40 196.65,801.05 192.80,801.60"/>
    </edge>
    <edge id=":B4_9" function="internal">
        <lane id=":B4_9_0" index="0" speed="6.51" length="9.03" shape="192.80,798.40 195.25,798.05 197.00,797.00 198.05,795.25 198.40,792.80"/>
    </edge>
    <edge id=":B4_10" function="internal">
        <lane id=":B4_10_0" index="0" speed="13.90" length="14.40" shape="192.80,798.40 207.20,798.40"/>
    </edge>
    <edge id=":B4_11" function="internal">
        <lane id=":B4_11_0" index="0" speed="8.00" length="14.19" shape="192.80,798.40 196.65,798.95 199.40,800.60 201.05,803.35 201.60,807.20"/>
    </edge>
    <edge id=":B5_0" function="internal">
        <lane id=":B5_0_0" index="0" speed="6.51" length="9.03" shape="198.40,1007.20 198.05,1004.75 197.00,1003.00 195.25,1001.95 192.80,1001.60"/>
    </edge>
    <edge id=":B5_1" function="internal">
        <lane id=":B5_1_0" index="0" speed="13.90" length="14.40" shape="198.40,1007.20 198.40,992.80"/>
    </edge>
    <edge id=":B5_2" function="internal">
        <lane id=":B5_2_0" index="0" speed="8.00" length="4.07" shape="198.40,1007.20 198.95,1003.35 199.04,1003.20"/>
    </edge>
    <edge id=":B5_12" function="internal">
        <lane id=":B5_12_0" index="0" speed="8.00" length="10.13" shape="199.04,1003.20 200.60,1000.60 203.35,998.95 207.20,998.40"/>
    </edge>
    <edge id=":B5_3" function="internal">
        <lane id=":B5_3_0" index="0" speed="6.51" length="9.03" shape="207.20,1001.60 204.75,1001.95 203.00,1003.00 201.95,1004.75 201.60,1007.20"/>
    </edge>
    <edge id=":B5_4" function="internal">
        <lane id=":B5_4_0" index="0" speed="13.90" length="14.40" shape="207.20,1001.60 192.80,1001.60"/>
    </edge>
    <edge id=":B5_5" function="internal">
        <lane id=":B5_5_0" index="0" speed="8.00" length="14.19" shape="207.20,1001.60 203.35,1001.05 200.60,999.40 198.95,996.65 198.40,992.80"/>
    </edge>
    <edge id=":B5_6" function="internal">
        <lane id=":B5_6_0" index="0" speed="6.51" length="9.03" shape="201.60,992.80 201.95,995.25 203.00,997.00 204.75,998.05 207.20,998.40"/>
    </edge>
    <edge id=":B5_7" function="internal">
        <lane id=":B5_7_0" index="0" speed="13.90" length="14.40" shape="201.60,992.80 201.60,1007.20"/>
    </edge>
    <edge id=":B5_8" function="internal">
        <lane id=":B5_8_0" index="0" speed="8.00" length="4.07" shape="201.60,992.80 201.05,996.65 200.96,996.80"/>
    </edge>
    <edge id=":B5_13" function="internal">
        <lane id=":B5_13_0" index="0" speed="8.00" length="10.13" shape="200.96,996.80 199.40,999.40 196.65,1001.05 192.80,1001.60"/>
    </edge>
    <edge id=":B5_9" function="internal">
        <lane id=":B5_9_0" index="0" speed="6.51" length="9.03" shape="192.80,998.40 195.25,998.05 197.00,997.00 198.05,995.25 198.40,992.80"/>
    </edge>
    <edge id=":B5_10" function="internal">
        <lane id=":B5_10_0" index="0" speed="13.90" length="14.40" shape="192.80,998.40 207.20,998.40"/>
    </edge>
    <edge id=":B5_11" function="internal">
        <lane id=":B5_11_0" index="0" speed="8.00" length="14.19" shape="192.80,998.40 196.65,998.95 199.40,1000.60 201.05,1003.35 201.60,1007.20"/>
    </edge>
    <edge id=":B6_0" function="internal">
        <lane id=":B6_0_0" index="0" speed="13.90" length="14.40" shape="207.20,1201.60 192.80,1201.60"/>
    </edge>
    <edge id=":B6_1" function="internal">
        <lane id=":B6_1_0" index="0" speed="8.00" length="4.07" shape="207.20,1201.60 203.35,1201.05 203.20,1200.96"/>
    </edge>
    <edge id=":B6_6" function="internal">
        <lane id=":B6_6_0" index="0" speed="8.00" length="10.13" shape="203.20,1200.96 200.60,1199.40 198.95,1196.65 198.40,1192.80"/>
    </edge>
    <edge id=":B6_2" function="internal">
        <lane id=":B6_2_0" index="0" speed="6.51" length="9.03" shape="201.60,1192.80 201.95,1195.25 203.00,1197.00 204.75,1198.05 207.20,1198.40"/>
    </edge>
    <edge id=":B6_3" function="internal">
        <lane id=":B6_3_0" index="0" speed="8.00" length="14.19" shape="201.60,1192.80 201.05,1196.65 199.40,1199.40 196.65,1201.05 192.80,1201.60"/>
    </edge>
    <edge id=":B6_4" function="internal">
        <lane id=":B6_4_0" index="0" speed="6.51" length="9.03" shape="192.80,1198.40 195.25,1198.05 197.00,1197.00 198.05,1195.25 198.40,1192.80"/>
    </edge>
    <edge id=":B6_5" function="internal">
        <lane id=":B6_5_0" index="0" speed="13.90" length="14.40" shape="192.80,1198.40 207.20,1198.40"/>
    </edge>
    <edge id=":C0_0" function="internal">
        <lane id=":C0_0_0" index="0" speed="6.51" length="9.03" shape="398.40,7.20 398.05,4.75 397.00,3.00 395.25,1.95 392.80,1.60"/>
    </edge>
    <edge id=":C0_1" function="internal">
        <lane id=":C0_1_0" index="0" speed="8.00" length="14.19" shape="398.40,7.20 398.95,3.35 400.60,0.60 403.35,-1.05 407.20,-1.60"/>
    </edge>
    <edge id=":C0_2" function="internal">
        <lane id=":C0_2_0" index="0" speed="6.51" length="9.03" shape="407.20,1.60 404.75,1.95 403.00,3.00 401.95,4.75 401.60,7.20"/>
    </edge>
    <edge id=":C0_3" function="internal">
        <lane id=":C0_3_0" index="0" speed="13.90" length="14.40" shape="407.20,1.60 392.80,1.60"/>
    </edge>
    <edge id=":C0_4" function="internal">
        <lane id=":C0_4_0" index="0" speed="13.90" length="14.40" shape="392.80,-1.60 407.20,-1.60"/>
    </edge>
    <edge id=":C0_5" function="internal">
        <lane id=":C0_5_0" index="0" speed="8.00" length="4.07" shape="392.80,-1.60 396.65,-1.05 396.80,-0.96"/>
    </edge>
    <edge id=":C0_6" function="internal">
        <lane id=":C0_6_0" index="0" speed="8.00" length="10.13" shape="396.80,-0.96 399.40,0.60 401.05,3.35 401.60,7.20"/>
    </edge>
    <edge id=":C1_0" function="internal">
        <lane id=":C1_0_0" index="0" speed="6.51" length="9.03" shape="398.40,207.20 398.05,204.75 397.00,203.00 395.25,201.95 392.80,201.60"/>
    </edge>
    <edge id=":C1_1" function="internal">
        <lane id=":C1_1_0" index="0" speed="13.90" length="14.40" shape="398.40,207.20 398.40,192.80"/>
    </edge>
    <edge id=":C1_2" function="internal">
        <lane id=":C1_2_0" index="0" speed="8.00" length="4.07" shape="398.40,207.20 398.95,203.35 399.04,203.20"/>
    </edge>
    <edge id=":C1_12" function="internal">
        <lane id=":C1_12_0" index="0" speed="8.00" length="10.13" shape="399.04,203.20 400.60,200.60 403.35,198.95 407.20,198.40"/>
    </edge>
    <edge id=":C1_3" function="internal">
        <lane id=":C1_3_0" index="0" speed="6.51" length="9.03" shape="407.20,201.60 404.75,201.95 403.00,203.00 401.95,204.75 401.60,207.20"/>
    </edge>
    <edge id=":C1_4" function="internal">
        <lane id=":C1_4_0" index="0" speed="13.90" length="14.40" shape="407.20,201.60 392.80,201.60"/>
    </edge>
    <edge id=":C1_5" function="internal">
        <lane id=":C1_5_0" index="0" speed="8.00" length="14.19" shape="407.20,201.60 403.35,201.05 400.60,199.40 398.95,196.65 398.40,192.80"/>
    </edge>
    <edge id=":C1_6" function="internal">
        <lane id=":C1_6_0" index="0" speed="6.51" length="9.03" shape="401.60,192.80 401.95,195.25 403.00,197.00 404.75,198.05 407.20,198.40"/>
    </edge>
    <edge id=":C1_7" function="internal">
        <lane id=":C1_7_0" index="0" speed="13.90" length="14.40" shape="401.60,192.80 401.60,207.20"/>
    </edge>
    <edge id=":C1_8" function="internal">
        <lane id=":C1_8_0" index="0" speed="8.00" length="4.07" shape="401.60,192.80 401.05,196.65 400.96,196.80"/>
    </edge>
    <edge id=":C1_13" function="internal">
        <lane id=":C1_13_0" index="0" speed="8.00" length="10.13" shape="400.96,196.80 399.40,199.40 396.65,201.05 392.80,201.60"/>
    </edge>
    <edge id=":C1_9" function="internal">
        <lane id=":C1_9_0" index="0" speed="6.51" length="9.03" shape="392.80,198.40 395.25,198.05 397.00,197.00 398.05,195.25 398.40,192.80"/>
    </edge>
    <edge id=":C1_10" function="internal">
        <lane id=":C1_10_0" index="0" speed="13.90" length="14.40" shape="392.80,198.40 407.20,198.40"/>
    </edge>
    <edge id=":C1_11" function="internal">
        <lane id=":C1_11_0" index="0" speed="8.00" length="14.19" shape="392.80,198.40 396.65,198.95 399.40,200.60 401.05,203.35 401.60,207.20"/>
    </edge>
    <edge id=":C2_0" function="internal">
        <lane id=":C2_0_0" index="0" speed="6.51" length="9.03" shape="398.40,407.20 398.05,404.75 397.00,403.00 395.25,401.95 392.80,401.60"/>
    </edge>
    <edge id=":C2_1" function="internal">
        <lane id=":C2_1_0" index="0" speed="13.90" length="14.40" shape="398.40,407.20 398.40,392.80"/>
    </edge>
    <edge id=":C2_2" function="internal">
        <lane id=":C2_2_0" index="0" speed="8.00" length="4.07" shape="398.40,407.20 398.95,403.35 399.04,403.20"/>
    </edge>
    <edge id=":C2_12" function="internal">
        <lane id=":C2_12_0" index="0" speed="8.00" length="10.13" shape="399.04,403.20 400.60,400.60 403.35,398.95 407.20,398.40"/>
    </edge>
    <edge id=":C2_3" function="internal">
        <lane id=":C2_3_0" index="0" speed="6.51" length="9.03" shape="407.20,401.60 404.75,401.95 403.00,403.00 401.95,404.75 401.60,407.20"/>
    </edge>
    <edge id=":C2_4" function="internal">
        <lane id=":C2_4_0" index="0" speed="13.90" length="14.40" shape="407.20,401.60 392.80,401.60"/>
    </edge>
    <edge id=":C2_5" function="internal">
        <lane id=":C2_5_0" index="0" speed="8.00" length="14.19" shape="407.20,401.60 403.35,401.05 400.60,399.40 398.95,396.65 398.40,392.80"/>
    </edge>
    <edge id=":C2_6" function="internal">
        <lane id=":C2_6_0" index="0" speed="6.51" length="9.03" shape="401.60,392.80 401.95,395.25 403.00,397.00 404.75,398.05 407.20,398.40"/>
    </edge>
    <edge id=":C2_7" function="internal">
        <lane id=":C2_7_0" index="0" speed="13.90" length="14.40" shape="401.60,392.80 401.60,407.20"/>
    </edge>
    <edge id=":C2_8" function="internal">
        <lane id=":C2_8_0" index="0" speed="8.00" length="4.07" shape="401.60,392.80 401.05,396.65 400.96,396.80"/>
    </edge>
    <edge id=":C2_13" function="internal">
        <lane id=":C2_13_0" index="0" speed="8.00" length="10.13" shape="400.96,396.80 399.40,399.40 396.65,401.05 392.80,401.60"/>
    </edge>
    <edge id=":C2_9" function="internal">
        <lane id=":C2_9_0" index="0" speed="6.51" length="9.03" shape="392.80,398.40 395.25,398.05 397.00,397.00 398.05,395.25 398.40,392.80"/>
    </edge>
    <edge id=":C2_10" function="internal">
        <lane id=":C2_10_0" index="0" speed="13.90" length="14.40" shape="392.80,398.40 407.20,398.40"/>
    </edge>
    <edge id=":C2_11" function="internal">
        <lane id=":C2_11_0" index="0" speed="8.00" length="14.19" shape="392.80,398.40 396.65,398.95 399.40,400.60 401.05,403.35 401.60,407.20"/>
    </edge>
    <edge id=":C3_0" function="internal">